Company: Fluent Inc. Common Stock
Ticker: FLNT
Sector: Communication Services
Industry: Advertising Agencies
Country: United States
City: New York
Website: https://www.fluentco.com
Employees: 208
Business Summary: Fluent, Inc. provides digital marketing services in the United States and internationally. The company offers customer acquisition services by operating digital marketing campaigns, through which the company connects its advertiser clients with consumers. It also provides performance campaigns, such as a trial subscription of a good or service, the submission of a registration form, and the installation of a mobile app; consumer data directly via direct mail, email, telephone, messaging, and other channels; programmatic data offerings; call solutions marketplace; and social media campaigns through Adparlor. It serves consumer brands; direct marketers; and agencies across a wide range of industries, including media and entertainment, financial products and services, health and life sciences, retail and consumer, and staffing and recruitment. Fluent, Inc. was founded in 2001 and is headquartered in New York, New York.