Company: Fluent Inc. Common Stock
Ticker: FLNT
Title: 
Publisher: 
Publish Time: 
Summary: 
Link: 